<?xml version="1.0" encoding="UTF-8"?>
<net version="1.16" junctionCornerDetail="5" limitTurnSpeed="5.50" xmlns:xsi="http://www.w3.org/2001/X_XMLSchema-instance" xsi:noNamespaceSchemaLocation="http://sumo.dlr.de/xsd/net_file.xsd">
    <location netOffset="0.00,0.00" convBoundary="0.00,0.00,500.00,0.00" origBoundary="0.00,0.00,500.00,0.00" projParameter="!"/>
    <edge id="g0to1" from="node0" to="node1" priority="-1">
        <lane id="g0to1_0" index="0" speed="13.89" length="500.00" shape="0.00,-1.60 500.00,-1.60"/>
    </edge>
    <junction id="node0" type="dead_end" x="0.00" y="0.00" incLanes="" intLanes="" shape="0.00,0.00 0.00,-3.20"/>
    <junction id="node1" type="dead_end" x="500.00" y="0.00" incLanes="g0to1_0" intLanes="" shape="500.00,-3.20 500.00,0.00"/>
</net>